Circuit: * C:\Users\Peter\Nextcloud\Personal\RotarySMP\Balantron\Balantron power.asc

Warning: Multiple definitions of model "2n2905a" Type: BJT
Direct Newton iteration failed to find .op point.  (Use ".option noopiter" to skip.)
Starting Gmin stepping
Gmin = 10
Gmin = 1.07374
Gmin = 0.115292
Gmin = 0.0123794
Gmin = 0.00132923
Gmin = 0.000142725
Gmin = 1.5325e-005
Gmin = 1.6455e-006
Gmin = 1.76685e-007
Gmin = 1.89714e-008
Gmin = 2.03704e-009
Gmin = 2.18725e-010
Gmin = 2.34854e-011
Gmin = 2.52173e-012
Gmin = 2.70769e-013
Gmin = 0
Gmin stepping succeeded in finding the operating point.


Date: Fri Sep 19 19:32:29 2025
Total elapsed time: 0.139 seconds.

tnom = 27
temp = 27
method = modified trap
totiter = 2546
traniter = 2088
tranpoints = 1045
accept = 1045
rejected = 0
matrix size = 11
fillins = 4
solver = Alternate
Matrix Compiler1: 1.55 KB object code size  0.5/0.4/[0.3]
Matrix Compiler2: 1.31 KB object code size  0.3/0.3/[0.2]

