Circuit: * C:\Users\Peter\Nextcloud\Personal\RotarySMP\Balantron\Balantron signal.asc

Direct Newton iteration failed to find .op point.  (Use ".option noopiter" to skip.)
Starting Gmin stepping
Gmin = 10
Gmin = 1.07374
Gmin = 0.115292
Gmin = 0.0123794
Gmin = 0.00132923
Gmin = 0.000142725
Gmin = 1.5325e-005
Gmin = 1.6455e-006
Gmin = 1.76685e-007
Gmin = 1.89714e-008
Gmin = 2.03704e-009
Gmin = 2.18725e-010
Gmin = 2.34854e-011
Gmin = 2.52173e-012
Gmin = 2.70769e-013
Gmin = 0
Gmin stepping succeeded in finding the operating point.


Date: Sat Sep 20 00:20:29 2025
Total elapsed time: 2104.219 seconds.

tnom = 27
temp = 27
method = modified trap
totiter = 80553643
traniter = 80553044
tranpoints = 27867876
accept = 19000529
rejected = 8867347
matrix size = 95
fillins = 111
solver = Normal
Matrix Compiler1: 14.24 KB object code size  2.8/1.7/[0.8]
Matrix Compiler2: 10.57 KB object code size  1.5/1.4/[1.0]

